dss/import/capas-pablo/Formato-plugin/urbano/Demanda_Escenario_01_2023_Caso_1 - completa.txt
New Load.Carga_IDSeta_2943 phases=3 bus1=X_2943.1.2.3.0 kv=0.38 kW=145.64501657521188 pf=0.9 status=variable model=1 CVRwatts=0.8 CVRvars=3 Class=1 daily=334 conn=wye
New Load.Carga_IDSeta_3012 phases=3 bus1=X_3012.1.2.3.0 kv=0.38 kW=72.00706915074633 pf=0.9 status=variable model=1 CVRwatts=0.8 CVRvars=3 Class=1 daily=335 conn=wye
New Load.Carga_IDSeta_2982 phases=3 bus1=X_2982.1.2.3.0 kv=0.38 kW=9.988182040111642 pf=0.9 status=variable model=1 CVRwatts=0.8 CVRvars=3 Class=1 daily=333 conn=wye
New Load.Carga_IDSeta_2986 phases=3 bus1=X_2986.1.2.3.0 kv=0.38 kW=54.139472167453654 pf=0.9 status=variable model=1 CVRwatts=0.8 CVRvars=3 Class=1 daily=333 conn=wye
New Load.Carga_IDSeta_205 phases=3 bus1=X_205.1.2.3.0 kv=0.38 kW=3.4671814775458443 pf=0.9 status=variable model=1 CVRwatts=0.8 CVRvars=3 Class=1 daily=332 conn=wye
New Load.Carga_IDSeta_1354 phases=3 bus1=X_1354.1.2.3.0 kv=0.38 kW=5.966610716355598 pf=0.9 status=variable model=1 CVRwatts=0.8 CVRvars=3 Class=1 daily=332 conn=wye
New Load.Carga_IDSeta_2073 phases=3 bus1=X_2073.1.2.3.0 kv=0.38 kW=5.305408933687292 pf=0.9 status=variable model=1 CVRwatts=0.8 CVRvars=3 Class=1 daily=332 conn=wye
New Load.Carga_IDSeta_828 phases=3 bus1=X_828.1.2.3.0 kv=0.38 kW=11.240424895014478 pf=0.9 status=variable model=1 CVRwatts=0.8 CVRvars=3 Class=1 daily=333 conn=wye
New Load.Carga_IDSeta_115 phases=3 bus1=X_115.1.2.3.0 kv=0.38 kW=21.736829812253053 pf=0.9 status=variable model=1 CVRwatts=0.8 CVRvars=3 Class=1 daily=333 conn=wye
New Load.Carga_IDSeta_1245 phases=3 bus1=X_1245.1.2.3.0 kv=0.38 kW=21.33594997450506 pf=0.9 status=variable model=1 CVRwatts=0.8 CVRvars=3 Class=1 daily=332 conn=wye
New Load.Carga_IDSeta_848 phases=3 bus1=X_848.1.2.3.0 kv=0.38 kW=15.513426813694617 pf=0.9 status=variable model=1 CVRwatts=0.8 CVRvars=3 Class=1 daily=332 conn=wye
New Load.Carga_IDSeta_1945 phases=3 bus1=X_1945.1.2.3.0 kv=0.38 kW=76.16926972363206 pf=0.9 status=variable model=1 CVRwatts=0.8 CVRvars=3 Class=1 daily=332 conn=wye
New Load.Carga_IDSeta_2970 phases=3 bus1=X_2970.1.2.3.0 kv=0.38 kW=6.303770817307852 pf=0.9 status=variable model=1 CVRwatts=0.8 CVRvars=3 Class=1 daily=332 conn=wye
New Load.Carga_IDSeta_2971 phases=3 bus1=X_2971.1.2.3.0 kv=0.38 kW=55.05934366088513 pf=0.9 status=variable model=1 CVRwatts=0.8 CVRvars=3 Class=1 daily=332 conn=wye
New Load.Carga_IDSeta_3002 phases=3 bus1=X_3002.1.2.3.0 kv=0.38 kW=29.435719613054204 pf=0.9 status=variable model=1 CVRwatts=0.8 CVRvars=3 Class=1 daily=333 conn=wye
New Load.Carga_IDSeta_1067 phases=3 bus1=X_1067.1.2.3.0 kv=0.38 kW=2.7860686552408596 pf=0.9 status=variable model=1 CVRwatts=0.8 CVRvars=3 Class=1 daily=333 conn=wye
New Load.Carga_IDSeta_821 phases=3 bus1=X_821.1.2.3.0 kv=0.38 kW=37.987828631446384 pf=0.9 status=variable model=1 CVRwatts=0.8 CVRvars=3 Class=1 daily=333 conn=wye
New Load.Carga_IDSeta_210 phases=3 bus1=X_210.1.2.3.0 kv=0.38 kW=0.8516167130235002 pf=0.9 status=variable model=1 CVRwatts=0.8 CVRvars=3 Class=1 daily=333 conn=wye
New Load.Carga_IDSeta_784 phases=3 bus1=X_784.1.2.3.0 kv=0.38 kW=88.21558714959019 pf=0.9 status=variable model=1 CVRwatts=0.8 CVRvars=3 Class=1 daily=333 conn=wye
New Load.Carga_IDSeta_2960 phases=3 bus1=X_2960.1.2.3.0 kv=0.38 kW=1.1881426722021413 pf=0.9 status=variable model=1 CVRwatts=0.8 CVRvars=3 Class=1 daily=333 conn=wye
New Load.Carga_IDSeta_646 phases=3 bus1=X_646.1.2.3.0 kv=0.38 kW=0.6181089046138307 pf=0.9 status=variable model=1 CVRwatts=0.8 CVRvars=3 Class=1 daily=333 conn=wye
! New Load.Carga_IDSeta_2952 phases=3 bus1=X_2952.1.2.3.0 kv=0.38 kW=0.0 pf=0.9 status=variable model=1 CVRwatts=0.8 CVRvars=3 Class=1 daily=333 conn=wye
New Load.Carga_IDSeta_2959 phases=3 bus1=X_2959.1.2.3.0 kv=0.38 kW=17.87937238901488 pf=0.9 status=variable model=1 CVRwatts=0.8 CVRvars=3 Class=1 daily=333 conn=wye
New Load.Carga_IDSeta_2956 phases=3 bus1=X_2956.1.2.3.0 kv=0.38 kW=1.9779484947642585 pf=0.9 status=variable model=1 CVRwatts=0.8 CVRvars=3 Class=1 daily=333 conn=wye
New Load.Carga_IDSeta_2088 phases=3 bus1=X_2088.1.2.3.0 kv=0.38 kW=14.23671071207315 pf=0.9 status=variable model=1 CVRwatts=0.8 CVRvars=3 Class=1 daily=332 conn=wye
New Load.Carga_IDSeta_560 phases=3 bus1=X_560.1.2.3.0 kv=0.38 kW=47.247026316765265 pf=0.9 status=variable model=1 CVRwatts=0.8 CVRvars=3 Class=1 daily=332 conn=wye
New Load.Carga_IDSeta_1638 phases=3 bus1=X_1638.1.2.3.0 kv=0.38 kW=9.83303180883484 pf=0.9 status=variable model=1 CVRwatts=0.8 CVRvars=3 Class=1 daily=332 conn=wye
New Load.Carga_IDSeta_2396 phases=3 bus1=X_2396.1.2.3.0 kv=0.38 kW=1.369190204434024 pf=0.9 status=variable model=1 CVRwatts=0.8 CVRvars=3 Class=1 daily=332 conn=wye
New Load.Carga_IDSeta_1951 phases=3 bus1=X_1951.1.2.3.0 kv=0.38 kW=1.5565040266427204 pf=0.9 status=variable model=1 CVRwatts=0.8 CVRvars=3 Class=1 daily=332 conn=wye
New Load.Carga_IDSeta_570 phases=3 bus1=X_570.1.2.3.0 kv=0.38 kW=27.594057223214776 pf=0.9 status=variable model=1 CVRwatts=0.8 CVRvars=3 Class=1 daily=332 conn=wye
New Load.Carga_IDSeta_2940 phases=3 bus1=X_2940.1.2.3.0 kv=0.38 kW=96.44305875966805 pf=0.9 status=variable model=1 CVRwatts=0.8 CVRvars=3 Class=1 daily=335 conn=wye
New Load.Carga_IDSeta_1594 phases=3 bus1=X_1594.1.2.3.0 kv=0.38 kW=144.58953542220652 pf=0.9 status=variable model=1 CVRwatts=0.8 CVRvars=3 Class=1 daily=335 conn=wye
New Load.Carga_IDSeta_1595 phases=3 bus1=X_1595.1.2.3.0 kv=0.38 kW=185.22655549514093 pf=0.9 status=variable model=1 CVRwatts=0.8 CVRvars=3 Class=1 daily=335 conn=wye
New Load.Carga_IDSeta_2937 phases=3 bus1=X_2937.1.2.3.0 kv=0.38 kW=186.90760521959749 pf=0.9 status=variable model=1 CVRwatts=0.8 CVRvars=3 Class=1 daily=332 conn=wye
New Load.Carga_IDSeta_2947 phases=3 bus1=X_2947.1.2.3.0 kv=0.38 kW=10.439011976102673 pf=0.9 status=variable model=1 CVRwatts=0.8 CVRvars=3 Class=1 daily=332 conn=wye
New Load.Carga_IDSeta_593 phases=3 bus1=X_593.1.2.3.0 kv=0.38 kW=14.346628250299966 pf=0.9 status=variable model=1 CVRwatts=0.8 CVRvars=3 Class=1 daily=332 conn=wye
New Load.Carga_IDSeta_2948 phases=3 bus1=X_2948.1.2.3.0 kv=0.38 kW=7.768302538595135 pf=0.9 status=variable model=1 CVRwatts=0.8 CVRvars=3 Class=1 daily=332 conn=wye
New Load.Carga_IDSeta_594 phases=3 bus1=X_594.1.2.3.0 kv=0.38 kW=15.919404851623657 pf=0.9 status=variable model=1 CVRwatts=0.8 CVRvars=3 Class=1 daily=332 conn=wye
New Load.Carga_IDSeta_859 phases=3 bus1=X_859.1.2.3.0 kv=0.38 kW=8.08362250260406 pf=0.9 status=variable model=1 CVRwatts=0.8 CVRvars=3 Class=1 daily=332 conn=wye
New Load.Carga_IDSeta_2074 phases=3 bus1=X_2074.1.2.3.0 kv=0.38 kW=1.1445761045792278 pf=0.9 status=variable model=1 CVRwatts=0.8 CVRvars=3 Class=1 daily=332 conn=wye
New Load.Carga_IDSeta_596 phases=3 bus1=X_596.1.2.3.0 kv=0.38 kW=1.25210413110546 pf=0.9 status=variable model=1 CVRwatts=0.8 CVRvars=3 Class=1 daily=332 conn=wye
New Load.Carga_IDSeta_1874 phases=3 bus1=X_1874.1.2.3.0 kv=0.38 kW=38.68471293518342 pf=0.9 status=variable model=1 CVRwatts=0.8 CVRvars=3 Class=1 daily=332 conn=wye
New Load.Carga_IDSeta_956 phases=3 bus1=X_956.1.2.3.0 kv=0.38 kW=10.622315990400649 pf=0.9 status=variable model=1 CVRwatts=0.8 CVRvars=3 Class=1 daily=333 conn=wye
New Load.Carga_IDSeta_2258 phases=3 bus1=X_2258.1.2.3.0 kv=0.38 kW=11.272043545159898 pf=0.9 status=variable model=1 CVRwatts=0.8 CVRvars=3 Class=1 daily=332 conn=wye
New Load.Carga_IDSeta_2286 phases=3 bus1=X_2286.1.2.3.0 kv=0.38 kW=30.241660082577674 pf=0.9 status=variable model=1 CVRwatts=0.8 CVRvars=3 Class=1 daily=332 conn=wye
New Load.Carga_IDSeta_582 phases=3 bus1=X_582.1.2.3.0 kv=0.38 kW=7.2521680112692195 pf=0.9 status=variable model=1 CVRwatts=0.8 CVRvars=3 Class=1 daily=332 conn=wye
New Load.Carga_IDSeta_2962 phases=3 bus1=X_2962.1.2.3.0 kv=0.38 kW=0.8012522837586694 pf=0.9 status=variable model=1 CVRwatts=0.8 CVRvars=3 Class=1 daily=333 conn=wye
New Load.Carga_IDSeta_957 phases=3 bus1=X_957.1.2.3.0 kv=0.38 kW=16.23337126895064 pf=0.9 status=variable model=1 CVRwatts=0.8 CVRvars=3 Class=1 daily=333 conn=wye
New Load.Carga_IDSeta_958 phases=3 bus1=X_958.1.2.3.0 kv=0.38 kW=12.42453841287543 pf=0.9 status=variable model=1 CVRwatts=0.8 CVRvars=3 Class=1 daily=333 conn=wye
New Load.Carga_IDSeta_2949 phases=3 bus1=X_2949.1.2.3.0 kv=0.38 kW=0.17856479466621772 pf=0.9 status=variable model=1 CVRwatts=0.8 CVRvars=3 Class=1 daily=333 conn=wye
New Load.Carga_IDSeta_2966 phases=3 bus1=X_2966.1.2.3.0 kv=0.38 kW=0.26097931528139523 pf=0.9 status=variable model=1 CVRwatts=0.8 CVRvars=3 Class=1 daily=333 conn=wye
New Load.Carga_IDSeta_2968 phases=3 bus1=X_2968.1.2.3.0 kv=0.38 kW=9.561206144557843 pf=0.9 status=variable model=1 CVRwatts=0.8 CVRvars=3 Class=1 daily=333 conn=wye
New Load.Carga_IDSeta_520 phases=3 bus1=X_520.1.2.3.0 kv=0.38 kW=63.139916177992376 pf=0.9 status=variable model=1 CVRwatts=0.8 CVRvars=3 Class=1 daily=333 conn=wye
New Load.Carga_IDSeta_644 phases=3 bus1=X_644.1.2.3.0 kv=0.38 kW=4.358812423647162 pf=0.9 status=variable model=1 CVRwatts=0.8 CVRvars=3 Class=1 daily=333 conn=wye
New Load.Carga_IDSeta_1046 phases=3 bus1=X_1046.1.2.3.0 kv=0.38 kW=5.597502843966552 pf=0.9 status=variable model=1 CVRwatts=0.8 CVRvars=3 Class=1 daily=332 conn=wye
New Load.Carga_IDSeta_2992 phases=3 bus1=X_2992.1.2.3.0 kv=0.38 kW=25.164473411413056 pf=0.9 status=variable model=1 CVRwatts=0.8 CVRvars=3 Class=1 daily=332 conn=wye
New Load.Carga_IDSeta_524 phases=3 bus1=X_524.1.2.3.0 kv=0.38 kW=17.233564601593258 pf=0.9 status=variable model=1 CVRwatts=0.8 CVRvars=3 Class=1 daily=332 conn=wye
New Load.Carga_IDSeta_1106 phases=3 bus1=X_1106.1.2.3.0 kv=0.38 kW=20.0367007775471 pf=0.9 status=variable model=1 CVRwatts=0.8 CVRvars=3 Class=1 daily=332 conn=wye
New Load.Carga_IDSeta_2950 phases=3 bus1=X_2950.1.2.3.0 kv=0.38 kW=10.561474450757553 pf=0.9 status=variable model=1 CVRwatts=0.8 CVRvars=3 Class=1 daily=332 conn=wye
! New Load.Carga_IDSeta_1213 phases=3 bus1=X_1213.1.2.3.0 kv=0.38 kW=0.0 pf=0.9 status=variable model=1 CVRwatts=0.8 CVRvars=3 Class=1 daily=332 conn=wye
New Load.Carga_IDSeta_2643 phases=3 bus1=X_2643.1.2.3.0 kv=0.38 kW=31.228002722344296 pf=0.9 status=variable model=1 CVRwatts=0.8 CVRvars=3 Class=1 daily=332 conn=wye
New Load.Carga_IDSeta_2967 phases=3 bus1=X_2967.1.2.3.0 kv=0.38 kW=3.9235782123571856 pf=0.9 status=variable model=1 CVRwatts=0.8 CVRvars=3 Class=1 daily=332 conn=wye
New Load.Carga_IDSeta_2973 phases=3 bus1=X_2973.1.2.3.0 kv=0.38 kW=14.951174710547448 pf=0.9 status=variable model=1 CVRwatts=0.8 CVRvars=3 Class=1 daily=332 conn=wye
New Load.Carga_IDSeta_2963 phases=3 bus1=X_2963.1.2.3.0 kv=0.38 kW=0.6982341329896976 pf=0.9 status=variable model=1 CVRwatts=0.8 CVRvars=3 Class=1 daily=333 conn=wye
New Load.Carga_IDSeta_2989 phases=3 bus1=X_2989.1.2.3.0 kv=0.38 kW=4.402308976194061 pf=0.9 status=variable model=1 CVRwatts=0.8 CVRvars=3 Class=1 daily=333 conn=wye
New Load.Carga_IDSeta_968 phases=3 bus1=X_968.1.2.3.0 kv=0.38 kW=61.66437575806721 pf=0.9 status=variable model=1 CVRwatts=0.8 CVRvars=3 Class=1 daily=333 conn=wye
New Load.Carga_IDSeta_1002 phases=3 bus1=X_1002.1.2.3.0 kv=0.38 kW=41.19757122975045 pf=0.9 status=variable model=1 CVRwatts=0.8 CVRvars=3 Class=1 daily=332 conn=wye
New Load.Carga_IDSeta_2957 phases=3 bus1=X_2957.1.2.3.0 kv=0.38 kW=1.5412350468759954 pf=0.9 status=variable model=1 CVRwatts=0.8 CVRvars=3 Class=1 daily=332 conn=wye
New Load.Carga_IDSeta_2988 phases=3 bus1=X_2988.1.2.3.0 kv=0.38 kW=0.5710932964393224 pf=0.9 status=variable model=1 CVRwatts=0.8 CVRvars=3 Class=1 daily=332 conn=wye
New Load.Carga_IDSeta_833 phases=3 bus1=X_833.1.2.3.0 kv=0.38 kW=19.779565423447373 pf=0.9 status=variable model=1 CVRwatts=0.8 CVRvars=3 Class=1 daily=332 conn=wye
New Load.Carga_IDSeta_523 phases=3 bus1=X_523.1.2.3.0 kv=0.38 kW=10.470840271954437 pf=0.9 status=variable model=1 CVRwatts=0.8 CVRvars=3 Class=1 daily=332 conn=wye
New Load.Carga_IDSeta_1356 phases=3 bus1=X_1356.1.2.3.0 kv=0.38 kW=2.440385527104976 pf=0.9 status=variable model=1 CVRwatts=0.8 CVRvars=3 Class=1 daily=333 conn=wye
New Load.Carga_IDSeta_1382 phases=3 bus1=X_1382.1.2.3.0 kv=0.38 kW=2.339656668575315 pf=0.9 status=variable model=1 CVRwatts=0.8 CVRvars=3 Class=1 daily=333 conn=wye
New Load.Carga_IDSeta_635 phases=3 bus1=X_635.1.2.3.0 kv=0.38 kW=0.4444491763084267 pf=0.9 status=variable model=1 CVRwatts=0.8 CVRvars=3 Class=1 daily=332 conn=wye
New Load.Carga_IDSeta_1355 phases=3 bus1=X_1355.1.2.3.0 kv=0.38 kW=71.36754596131064 pf=0.9 status=variable model=1 CVRwatts=0.8 CVRvars=3 Class=1 daily=332 conn=wye
New Load.Carga_IDSeta_1243 phases=3 bus1=X_1243.1.2.3.0 kv=0.38 kW=3.479129036048759 pf=0.9 status=variable model=1 CVRwatts=0.8 CVRvars=3 Class=1 daily=332 conn=wye
New Load.Carga_IDSeta_1543 phases=3 bus1=X_1543.1.2.3.0 kv=0.38 kW=45.28609743479888 pf=0.9 status=variable model=1 CVRwatts=0.8 CVRvars=3 Class=1 daily=332 conn=wye
New Load.Carga_IDSeta_2 phases=3 bus1=X_2.1.2.3.0 kv=0.38 kW=7.721782723194264 pf=0.9 status=variable model=1 CVRwatts=0.8 CVRvars=3 Class=1 daily=333 conn=wye
New Load.Carga_IDSeta_2978 phases=3 bus1=X_2978.1.2.3.0 kv=0.38 kW=3.2599521487781296 pf=0.9 status=variable model=1 CVRwatts=0.8 CVRvars=3 Class=1 daily=333 conn=wye
New Load.Carga_IDSeta_2724 phases=3 bus1=X_2724.1.2.3.0 kv=0.38 kW=0.785227238083496 pf=0.9 status=variable model=1 CVRwatts=0.8 CVRvars=3 Class=1 daily=333 conn=wye
New Load.Carga_IDSeta_2683 phases=3 bus1=X_2683.1.2.3.0 kv=0.38 kW=81.1215327230902 pf=0.9 status=variable model=1 CVRwatts=0.8 CVRvars=3 Class=1 daily=332 conn=wye
New Load.Carga_IDSeta_1352 phases=3 bus1=X_1352.1.2.3.0 kv=0.38 kW=166.16994118468438 pf=0.9 status=variable model=1 CVRwatts=0.8 CVRvars=3 Class=1 daily=332 conn=wye
New Load.Carga_IDSeta_1374 phases=3 bus1=X_1374.1.2.3.0 kv=0.38 kW=16.518694386129855 pf=0.9 status=variable model=1 CVRwatts=0.8 CVRvars=3 Class=1 daily=332 conn=wye
New Load.Carga_IDSeta_2977 phases=3 bus1=X_2977.1.2.3.0 kv=0.38 kW=7.785029120499215 pf=0.9 status=variable model=1 CVRwatts=0.8 CVRvars=3 Class=1 daily=332 conn=wye
New Load.Carga_IDSeta_2660 phases=3 bus1=X_2660.1.2.3.0 kv=0.38 kW=0.6666737644626402 pf=0.9 status=variable model=1 CVRwatts=0.8 CVRvars=3 Class=1 daily=332 conn=wye
New Load.Carga_IDSeta_2975 phases=3 bus1=X_2975.1.2.3.0 kv=0.38 kW=93.29485229147596 pf=0.9 status=variable model=1 CVRwatts=0.8 CVRvars=3 Class=1 daily=332 conn=wye
New Load.Carga_IDSeta_1353 phases=3 bus1=X_1353.1.2.3.0 kv=0.38 kW=26.61008020003172 pf=0.9 status=variable model=1 CVRwatts=0.8 CVRvars=3 Class=1 daily=332 conn=wye
New Load.Carga_IDSeta_1318 phases=3 bus1=X_1318.1.2.3.0 kv=0.38 kW=0.391879918895602 pf=0.9 status=variable model=1 CVRwatts=0.8 CVRvars=3 Class=1 daily=332 conn=wye
New Load.Carga_IDSeta_540 phases=3 bus1=X_540.1.2.3.0 kv=0.38 kW=4.4110115740881035 pf=0.9 status=variable model=1 CVRwatts=0.8 CVRvars=3 Class=1 daily=335 conn=wye
New Load.Carga_IDSeta_541 phases=3 bus1=X_541.1.2.3.0 kv=0.38 kW=7.253757413641768 pf=0.9 status=variable model=1 CVRwatts=0.8 CVRvars=3 Class=1 daily=335 conn=wye
New Load.Carga_IDSeta_2395 phases=3 bus1=X_2395.1.2.3.0 kv=0.38 kW=3.696574600801806 pf=0.9 status=variable model=1 CVRwatts=0.8 CVRvars=3 Class=1 daily=332 conn=wye
New Load.Carga_IDSeta_2228 phases=3 bus1=X_2228.1.2.3.0 kv=0.38 kW=0.7192430218754646 pf=0.9 status=variable model=1 CVRwatts=0.8 CVRvars=3 Class=1 daily=332 conn=wye
New Load.Carga_IDSeta_651 phases=3 bus1=X_651.1.2.3.0 kv=0.38 kW=2.5113767973126686 pf=0.9 status=variable model=1 CVRwatts=0.8 CVRvars=3 Class=1 daily=332 conn=wye
New Load.Carga_IDSeta_31 phases=3 bus1=X_31.1.2.3.0 kv=0.38 kW=1.109621981981914 pf=0.9 status=variable model=1 CVRwatts=0.8 CVRvars=3 Class=1 daily=335 conn=wye
New Load.Carga_IDSeta_27 phases=3 bus1=X_27.1.2.3.0 kv=0.38 kW=7.497240179973801 pf=0.9 status=variable model=1 CVRwatts=0.8 CVRvars=3 Class=1 daily=335 conn=wye
New Load.Carga_IDSeta_805 phases=3 bus1=X_805.1.2.3.0 kv=0.38 kW=6.0191799737684235 pf=0.9 status=variable model=1 CVRwatts=0.8 CVRvars=3 Class=1 daily=332 conn=wye
New Load.Carga_IDSeta_3020 phases=3 bus1=X_3020.1.2.3.0 kv=0.38 kW=60.98817619725451 pf=0.9 status=variable model=1 CVRwatts=0.8 CVRvars=3 Class=1 daily=332 conn=wye
New Load.Carga_IDSeta_2543 phases=3 bus1=X_2543.1.2.3.0 kv=0.38 kW=2.1051598082135694 pf=0.9 status=variable model=1 CVRwatts=0.8 CVRvars=3 Class=1 daily=332 conn=wye
New Load.Carga_IDSeta_1105 phases=3 bus1=X_1105.1.2.3.0 kv=0.38 kW=1.096785870567569 pf=0.9 status=variable model=1 CVRwatts=0.8 CVRvars=3 Class=1 daily=332 conn=wye
New Load.Carga_IDSeta_656 phases=3 bus1=X_656.1.2.3.0 kv=0.38 kW=18.322775720069973 pf=0.9 status=variable model=1 CVRwatts=0.8 CVRvars=3 Class=1 daily=332 conn=wye
New Load.Carga_IDSeta_204 phases=3 bus1=X_204.1.2.3.0 kv=0.38 kW=8.191246109598314 pf=0.9 status=variable model=1 CVRwatts=0.8 CVRvars=3 Class=1 daily=332 conn=wye
New Load.Carga_IDSeta_3001 phases=3 bus1=X_3001.1.2.3.0 kv=0.38 kW=39.7065159285867 pf=0.9 status=variable model=1 CVRwatts=0.8 CVRvars=3 Class=1 daily=332 conn=wye
New Load.Carga_IDSeta_3014 phases=3 bus1=X_3014.1.2.3.0 kv=0.38 kW=6.414671838695446 pf=0.9 status=variable model=1 CVRwatts=0.8 CVRvars=3 Class=1 daily=335 conn=wye
New Load.Carga_IDSeta_2898 phases=3 bus1=X_2898.1.2.3.0 kv=0.38 kW=19.49210716586724 pf=0.9 status=variable model=1 CVRwatts=0.8 CVRvars=3 Class=1 daily=332 conn=wye
New Load.Carga_IDSeta_2944 phases=3 bus1=X_2944.1.2.3.0 kv=0.38 kW=1.5302215522950586 pf=0.9 status=variable model=1 CVRwatts=0.8 CVRvars=3 Class=1 daily=335 conn=wye
New Load.Carga_IDSeta_2377 phases=3 bus1=X_2377.1.2.3.0 kv=0.38 kW=10.535322885306849 pf=0.9 status=variable model=1 CVRwatts=0.8 CVRvars=3 Class=1 daily=333 conn=wye
New Load.Carga_IDSeta_2583 phases=3 bus1=X_2583.1.2.3.0 kv=0.38 kW=0.8333023751090162 pf=0.9 status=variable model=1 CVRwatts=0.8 CVRvars=3 Class=1 daily=333 conn=wye
New Load.Carga_IDSeta_2549 phases=3 bus1=X_2549.1.2.3.0 kv=0.38 kW=0.23350780840966942 pf=0.9 status=variable model=1 CVRwatts=0.8 CVRvars=3 Class=1 daily=333 conn=wye
New Load.Carga_IDSeta_3010 phases=3 bus1=X_3010.1.2.3.0 kv=0.38 kW=4.411466145151303 pf=0.9 status=variable model=1 CVRwatts=0.8 CVRvars=3 Class=1 daily=333 conn=wye
New Load.Carga_IDSeta_1228 phases=3 bus1=X_1228.1.2.3.0 kv=0.38 kW=0.7188377631434921 pf=0.9 status=variable model=1 CVRwatts=0.8 CVRvars=3 Class=1 daily=333 conn=wye
New Load.Carga_IDSeta_104 phases=3 bus1=X_104.1.2.3.0 kv=0.38 kW=71.17867430464158 pf=0.9 status=variable model=1 CVRwatts=0.8 CVRvars=3 Class=1 daily=333 conn=wye
New Load.Carga_IDSeta_11 phases=3 bus1=X_11.1.2.3.0 kv=0.38 kW=7.330313750272169 pf=0.9 status=variable model=1 CVRwatts=0.8 CVRvars=3 Class=1 daily=333 conn=wye
New Load.Carga_IDSeta_42 phases=3 bus1=X_42.1.2.3.0 kv=0.38 kW=2.9653326489916667 pf=0.9 status=variable model=1 CVRwatts=0.8 CVRvars=3 Class=1 daily=335 conn=wye
New Load.Carga_IDSeta_2997 phases=3 bus1=X_2997.1.2.3.0 kv=0.38 kW=4.566506601163168 pf=0.9 status=variable model=1 CVRwatts=0.8 CVRvars=3 Class=1 daily=335 conn=wye
New Load.Carga_IDSeta_2930 phases=3 bus1=X_2930.1.2.3.0 kv=0.38 kW=62.630457083056235 pf=0.9 status=variable model=1 CVRwatts=0.8 CVRvars=3 Class=1 daily=333 conn=wye
New Load.Carga_IDSeta_1759 phases=3 bus1=X_1759.1.2.3.0 kv=0.38 kW=11.786398201167634 pf=0.9 status=variable model=1 CVRwatts=0.8 CVRvars=3 Class=1 daily=333 conn=wye
New Load.Carga_IDSeta_5006 phases=3 bus1=X_5006.1.2.3.0 kv=0.38 kW=20.521215633179178 pf=0.9 status=variable model=1 CVRwatts=0.8 CVRvars=3 Class=1 daily=333 conn=wye
New Load.Carga_IDSeta_5000 phases=3 bus1=X_5000.1.2.3.0 kv=0.38 kW=0.11904319644414518 pf=0.9 status=variable model=1 CVRwatts=0.8 CVRvars=3 Class=1 daily=333 conn=wye
New Load.Carga_IDSeta_5026 phases=3 bus1=X_5026.1.2.3.0 kv=0.38 kW=0.30218657558898393 pf=0.9 status=variable model=1 CVRwatts=0.8 CVRvars=3 Class=1 daily=333 conn=wye
New Load.Carga_IDSeta_5007 phases=3 bus1=X_5007.1.2.3.0 kv=0.38 kW=0.3044758678282944 pf=0.9 status=variable model=1 CVRwatts=0.8 CVRvars=3 Class=1 daily=333 conn=wye
New Load.Carga_IDSeta_5008 phases=3 bus1=X_5008.1.2.3.0 kv=0.38 kW=0.6616054571607299 pf=0.9 status=variable model=1 CVRwatts=0.8 CVRvars=3 Class=1 daily=333 conn=wye
New Load.Carga_IDSeta_5011 phases=3 bus1=X_5011.1.2.3.0 kv=0.38 kW=1.1698283342876574 pf=0.9 status=variable model=1 CVRwatts=0.8 CVRvars=3 Class=1 daily=333 conn=wye
New Load.Carga_IDSeta_5009 phases=3 bus1=X_5009.1.2.3.0 kv=0.38 kW=18.059013151033575 pf=0.9 status=variable model=1 CVRwatts=0.8 CVRvars=3 Class=1 daily=333 conn=wye
New Load.Carga_IDSeta_2644 phases=3 bus1=X_2644.1.2.3.0 kv=0.38 kW=1.4193611883725 pf=0.9 status=variable model=1 CVRwatts=0.8 CVRvars=3 Class=1 daily=333 conn=wye
New Load.Carga_IDSeta_2922 phases=3 bus1=X_2922.1.2.3.0 kv=0.38 kW=0.6455804114855566 pf=0.9 status=variable model=1 CVRwatts=0.8 CVRvars=3 Class=1 daily=333 conn=wye
New Load.Carga_IDSeta_1973 phases=3 bus1=X_1973.1.2.3.0 kv=0.38 kW=28.277337739963098 pf=0.9 status=variable model=1 CVRwatts=0.8 CVRvars=3 Class=1 daily=333 conn=wye
New Load.Carga_IDSeta_2951 phases=3 bus1=X_2951.1.2.3.0 kv=0.38 kW=9.662942291672804 pf=0.9 status=variable model=1 CVRwatts=0.8 CVRvars=3 Class=1 daily=333 conn=wye
New Load.Carga_IDSeta_2993 phases=3 bus1=X_2993.1.2.3.0 kv=0.38 kW=2.6899183811898184 pf=0.9 status=variable model=1 CVRwatts=0.8 CVRvars=3 Class=1 daily=333 conn=wye
New Load.Carga_IDSeta_1357 phases=3 bus1=X_1357.1.2.3.0 kv=0.38 kW=1.4971971245090565 pf=0.9 status=variable model=1 CVRwatts=0.8 CVRvars=3 Class=1 daily=333 conn=wye
New Load.Carga_IDSeta_2548 phases=3 bus1=X_2548.1.2.3.0 kv=0.38 kW=2.779200778522928 pf=0.9 status=variable model=1 CVRwatts=0.8 CVRvars=3 Class=1 daily=333 conn=wye
New Load.Carga_IDSeta_1326 phases=3 bus1=X_1326.1.2.3.0 kv=0.38 kW=0.9637920327497137 pf=0.9 status=variable model=1 CVRwatts=0.8 CVRvars=3 Class=1 daily=333 conn=wye
New Load.Carga_IDSeta_1488 phases=3 bus1=X_1488.1.2.3.0 kv=0.38 kW=35.377188440503886 pf=0.9 status=variable model=1 CVRwatts=0.8 CVRvars=3 Class=1 daily=333 conn=wye
New Load.Carga_IDSeta_1231 phases=3 bus1=X_1231.1.2.3.0 kv=0.38 kW=6.825401221545107 pf=0.9 status=variable model=1 CVRwatts=0.8 CVRvars=3 Class=1 daily=332 conn=wye
New Load.Carga_IDSeta_401 phases=3 bus1=X_401.1.2.3.0 kv=0.38 kW=2.226809848890247 pf=0.9 status=variable model=1 CVRwatts=0.8 CVRvars=3 Class=1 daily=332 conn=wye
New Load.Carga_IDSeta_1236 phases=3 bus1=X_1236.1.2.3.0 kv=0.38 kW=17.484057113165367 pf=0.9 status=variable model=1 CVRwatts=0.8 CVRvars=3 Class=1 daily=332 conn=wye
New Load.Carga_IDSeta_967 phases=3 bus1=X_967.1.2.3.0 kv=0.38 kW=81.56942279624747 pf=0.9 status=variable model=1 CVRwatts=0.8 CVRvars=3 Class=1 daily=332 conn=wye
New Load.Carga_IDSeta_2998 phases=3 bus1=X_2998.1.2.3.0 kv=0.38 kW=5.5280158437136 pf=0.9 status=variable model=1 CVRwatts=0.8 CVRvars=3 Class=1 daily=332 conn=wye
New Load.Carga_IDSeta_1000 phases=3 bus1=X_1000.1.2.3.0 kv=0.38 kW=1.9593995944780098 pf=0.9 status=variable model=1 CVRwatts=0.8 CVRvars=3 Class=1 daily=332 conn=wye
New Load.Carga_IDSeta_2748 phases=3 bus1=X_2748.1.2.3.0 kv=0.38 kW=28.916579765194275 pf=0.9 status=variable model=1 CVRwatts=0.8 CVRvars=3 Class=1 daily=335 conn=wye
New Load.Carga_IDSeta_604 phases=3 bus1=X_604.1.2.3.0 kv=0.38 kW=55.84592167111455 pf=0.9 status=variable model=1 CVRwatts=0.8 CVRvars=3 Class=1 daily=335 conn=wye
New Load.Carga_IDSeta_835 phases=3 bus1=X_835.1.2.3.0 kv=0.38 kW=62.83708968467741 pf=0.9 status=variable model=1 CVRwatts=0.8 CVRvars=3 Class=1 daily=335 conn=wye
New Load.Carga_IDSeta_659 phases=3 bus1=X_659.1.2.3.0 kv=0.38 kW=8.230224757785852 pf=0.9 status=variable model=1 CVRwatts=0.8 CVRvars=3 Class=1 daily=335 conn=wye
New Load.Carga_IDSeta_47 phases=3 bus1=X_47.1.2.3.0 kv=0.38 kW=56.31762244744307 pf=0.9 status=variable model=1 CVRwatts=0.8 CVRvars=3 Class=1 daily=334 conn=wye
New Load.Carga_IDSeta_39 phases=3 bus1=X_39.1.2.3.0 kv=0.38 kW=12.40240341003785 pf=0.9 status=variable model=1 CVRwatts=0.8 CVRvars=3 Class=1 daily=335 conn=wye
New Load.Carga_IDSeta_2955 phases=3 bus1=X_2955.1.2.3.0 kv=0.38 kW=91.17335272277936 pf=0.9 status=variable model=1 CVRwatts=0.8 CVRvars=3 Class=1 daily=333 conn=wye
New Load.Carga_IDSeta_609 phases=3 bus1=X_609.1.2.3.0 kv=0.38 kW=14.76730851889621 pf=0.9 status=variable model=1 CVRwatts=0.8 CVRvars=3 Class=1 daily=333 conn=wye
New Load.Carga_IDSeta_2928 phases=3 bus1=X_2928.1.2.3.0 kv=0.38 kW=73.64424204637898 pf=0.9 status=variable model=1 CVRwatts=0.8 CVRvars=3 Class=1 daily=333 conn=wye
New Load.Carga_IDSeta_2298 phases=3 bus1=X_2298.1.2.3.0 kv=0.38 kW=0.7783593613655646 pf=0.9 status=variable model=1 CVRwatts=0.8 CVRvars=3 Class=1 daily=333 conn=wye
New Load.Carga_IDSeta_1289 phases=3 bus1=X_1289.1.2.3.0 kv=0.38 kW=58.402798211799166 pf=0.9 status=variable model=1 CVRwatts=0.8 CVRvars=3 Class=1 daily=333 conn=wye
New Load.Carga_IDSeta_2923 phases=3 bus1=X_2923.1.2.3.0 kv=0.38 kW=21.07310368744094 pf=0.9 status=variable model=1 CVRwatts=0.8 CVRvars=3 Class=1 daily=332 conn=wye
New Load.Carga_IDSeta_2958 phases=3 bus1=X_2958.1.2.3.0 kv=0.38 kW=10.98219577587919 pf=0.9 status=variable model=1 CVRwatts=0.8 CVRvars=3 Class=1 daily=332 conn=wye
New Load.Carga_IDSeta_2981 phases=3 bus1=X_2981.1.2.3.0 kv=0.38 kW=0.874509635416605 pf=0.9 status=variable model=1 CVRwatts=0.8 CVRvars=3 Class=1 daily=333 conn=wye
New Load.Carga_IDSeta_67 phases=3 bus1=X_67.1.2.3.0 kv=0.38 kW=9.487605399064012 pf=0.9 status=variable model=1 CVRwatts=0.8 CVRvars=3 Class=1 daily=333 conn=wye
New Load.Carga_IDSeta_5 phases=3 bus1=X_5.1.2.3.0 kv=0.38 kW=24.41676687927947 pf=0.9 status=variable model=1 CVRwatts=0.8 CVRvars=3 Class=1 daily=333 conn=wye
New Load.Carga_IDSeta_2991 phases=3 bus1=X_2991.1.2.3.0 kv=0.38 kW=1.3850218047828429 pf=0.9 status=variable model=1 CVRwatts=0.8 CVRvars=3 Class=1 daily=333 conn=wye
New Load.Carga_IDSeta_2933 phases=3 bus1=X_2933.1.2.3.0 kv=0.38 kW=159.89335725507382 pf=0.9 status=variable model=1 CVRwatts=0.8 CVRvars=3 Class=1 daily=335 conn=wye
New Load.Carga_IDSeta_66 phases=3 bus1=X_66.1.2.3.0 kv=0.38 kW=153.8844900269318 pf=0.9 status=variable model=1 CVRwatts=0.8 CVRvars=3 Class=1 daily=335 conn=wye
New Load.Carga_IDSeta_45 phases=3 bus1=X_45.1.2.3.0 kv=0.38 kW=14.42508576576488 pf=0.9 status=variable model=1 CVRwatts=0.8 CVRvars=3 Class=1 daily=335 conn=wye
New Load.Carga_IDSeta_43 phases=3 bus1=X_43.1.2.3.0 kv=0.38 kW=14.733666355039851 pf=0.9 status=variable model=1 CVRwatts=0.8 CVRvars=3 Class=1 daily=335 conn=wye
New Load.Carga_IDSeta_3005 phases=3 bus1=X_3005.1.2.3.0 kv=0.38 kW=0.48984989861950246 pf=0.9 status=variable model=1 CVRwatts=0.8 CVRvars=3 Class=1 daily=332 conn=wye
New Load.Carga_IDSeta_278 phases=3 bus1=X_278.1.2.3.0 kv=0.38 kW=22.91565615976045 pf=0.9 status=variable model=1 CVRwatts=0.8 CVRvars=3 Class=1 daily=332 conn=wye
New Load.Carga_IDSeta_3003 phases=3 bus1=X_3003.1.2.3.0 kv=0.38 kW=7.101200242861855 pf=0.9 status=variable model=1 CVRwatts=0.8 CVRvars=3 Class=1 daily=335 conn=wye
New Load.Carga_IDSeta_20 phases=3 bus1=X_20.1.2.3.0 kv=0.38 kW=51.80455159879562 pf=0.9 status=variable model=1 CVRwatts=0.8 CVRvars=3 Class=1 daily=335 conn=wye
New Load.Carga_IDSeta_2953 phases=3 bus1=X_2953.1.2.3.0 kv=0.38 kW=0.6847952803088383 pf=0.9 status=variable model=1 CVRwatts=0.8 CVRvars=3 Class=1 daily=335 conn=wye
New Load.Carga_IDSeta_25 phases=3 bus1=X_25.1.2.3.0 kv=0.38 kW=6.243473018618236 pf=0.9 status=variable model=1 CVRwatts=0.8 CVRvars=3 Class=1 daily=335 conn=wye
New Load.Carga_IDSeta_72 phases=3 bus1=X_72.1.2.3.0 kv=0.38 kW=104.04234793141204 pf=0.9 status=variable model=1 CVRwatts=0.8 CVRvars=3 Class=1 daily=334 conn=wye
New Load.Carga_IDSeta_71 phases=3 bus1=X_71.1.2.3.0 kv=0.38 kW=164.72267488700095 pf=0.9 status=variable model=1 CVRwatts=0.8 CVRvars=3 Class=1 daily=334 conn=wye
New Load.Carga_IDSeta_2897 phases=3 bus1=X_2897.1.2.3.0 kv=0.38 kW=0.5746123520669315 pf=0.9 status=variable model=1 CVRwatts=0.8 CVRvars=3 Class=1 daily=333 conn=wye
New Load.Carga_IDSeta_3004 phases=3 bus1=X_3004.1.2.3.0 kv=0.38 kW=20.87147734579369 pf=0.9 status=variable model=1 CVRwatts=0.8 CVRvars=3 Class=1 daily=333 conn=wye
New Load.Carga_IDSeta_645 phases=3 bus1=X_645.1.2.3.0 kv=0.38 kW=93.26668154640485 pf=0.9 status=variable model=1 CVRwatts=0.8 CVRvars=3 Class=1 daily=333 conn=wye
New Load.Carga_IDSeta_3021 phases=3 bus1=X_3021.1.2.3.0 kv=0.38 kW=64.76176599982443 pf=0.9 status=variable model=1 CVRwatts=0.8 CVRvars=3 Class=1 daily=335 conn=wye
New Load.Carga_IDSeta_207 phases=3 bus1=X_207.1.2.3.0 kv=0.38 kW=136.0861534359419 pf=0.9 status=variable model=1 CVRwatts=0.8 CVRvars=3 Class=1 daily=335 conn=wye
New Load.Carga_IDSeta_209 phases=3 bus1=X_209.1.2.3.0 kv=0.38 kW=150.9022488525004 pf=0.9 status=variable model=1 CVRwatts=0.8 CVRvars=3 Class=1 daily=335 conn=wye
New Load.Carga_IDSeta_236 phases=3 bus1=X_236.1.2.3.0 kv=0.38 kW=106.2006288814414 pf=0.9 status=variable model=1 CVRwatts=0.8 CVRvars=3 Class=1 daily=332 conn=wye
New Load.Carga_IDSeta_2666 phases=3 bus1=X_2666.1.2.3.0 kv=0.38 kW=111.59258592892384 pf=0.9 status=variable model=1 CVRwatts=0.8 CVRvars=3 Class=1 daily=332 conn=wye
New Load.Carga_IDSeta_439 phases=3 bus1=X_439.1.2.3.0 kv=0.38 kW=11.722944403059898 pf=0.9 status=variable model=1 CVRwatts=0.8 CVRvars=3 Class=1 daily=332 conn=wye
New Load.Carga_IDSeta_2931 phases=3 bus1=X_2931.1.2.3.0 kv=0.38 kW=25.24519111665875 pf=0.9 status=variable model=1 CVRwatts=0.8 CVRvars=3 Class=1 daily=332 conn=wye
New Load.Carga_IDSeta_1592 phases=3 bus1=X_1592.1.2.3.0 kv=0.38 kW=1.362128882389738 pf=0.9 status=variable model=1 CVRwatts=0.8 CVRvars=3 Class=1 daily=333 conn=wye
New Load.Carga_IDSeta_2478 phases=3 bus1=X_2478.1.2.3.0 kv=0.38 kW=58.36321634898148 pf=0.9 status=variable model=1 CVRwatts=0.8 CVRvars=3 Class=1 daily=333 conn=wye
New Load.Carga_IDSeta_37 phases=3 bus1=X_37.1.2.3.0 kv=0.38 kW=5.301879508193583 pf=0.9 status=variable model=1 CVRwatts=0.8 CVRvars=3 Class=1 daily=335 conn=wye
New Load.Carga_IDSeta_36 phases=3 bus1=X_36.1.2.3.0 kv=0.38 kW=17.808481706253733 pf=0.9 status=variable model=1 CVRwatts=0.8 CVRvars=3 Class=1 daily=335 conn=wye
New Load.Carga_IDSeta_2941 phases=3 bus1=X_2941.1.2.3.0 kv=0.38 kW=4.256721279450619 pf=0.9 status=variable model=1 CVRwatts=0.8 CVRvars=3 Class=1 daily=335 conn=wye
New Load.Carga_IDSeta_35 phases=3 bus1=X_35.1.2.3.0 kv=0.38 kW=15.186053953179682 pf=0.9 status=variable model=1 CVRwatts=0.8 CVRvars=3 Class=1 daily=335 conn=wye
New Load.Carga_IDSeta_34 phases=3 bus1=X_34.1.2.3.0 kv=0.38 kW=61.38384419444669 pf=0.9 status=variable model=1 CVRwatts=0.8 CVRvars=3 Class=1 daily=335 conn=wye
New Load.Carga_IDSeta_3035 phases=3 bus1=X_3035.1.2.3.0 kv=0.38 kW=22.357685867554054 pf=0.9 status=variable model=1 CVRwatts=0.8 CVRvars=3 Class=1 daily=333 conn=wye
New Load.Carga_IDSeta_33 phases=3 bus1=X_33.1.2.3.0 kv=0.38 kW=16.9212068338042 pf=0.9 status=variable model=1 CVRwatts=0.8 CVRvars=3 Class=1 daily=335 conn=wye
New Load.Carga_IDSeta_2935 phases=3 bus1=X_2935.1.2.3.0 kv=0.38 kW=0.6974766743886315 pf=0.9 status=variable model=1 CVRwatts=0.8 CVRvars=3 Class=1 daily=335 conn=wye
New Load.Carga_IDSeta_49 phases=3 bus1=X_49.1.2.3.0 kv=0.38 kW=166.5310025181304 pf=0.9 status=variable model=1 CVRwatts=0.8 CVRvars=3 Class=1 daily=334 conn=wye
New Load.Carga_IDSeta_48 phases=3 bus1=X_48.1.2.3.0 kv=0.38 kW=122.82141522847812 pf=0.9 status=variable model=1 CVRwatts=0.8 CVRvars=3 Class=1 daily=335 conn=wye
New Load.Carga_IDSeta_98 phases=3 bus1=X_98.1.2.3.0 kv=0.38 kW=58.09393126398271 pf=0.9 status=variable model=1 CVRwatts=0.8 CVRvars=3 Class=1 daily=335 conn=wye
New Load.Carga_IDSeta_38 phases=3 bus1=X_38.1.2.3.0 kv=0.38 kW=19.425782164563376 pf=0.9 status=variable model=1 CVRwatts=0.8 CVRvars=3 Class=1 daily=335 conn=wye
New Load.Carga_IDSeta_24 phases=3 bus1=X_24.1.2.3.0 kv=0.38 kW=84.80563931183691 pf=0.9 status=variable model=1 CVRwatts=0.8 CVRvars=3 Class=1 daily=335 conn=wye
New Load.Carga_IDSeta_3000 phases=3 bus1=X_3000.1.2.3.0 kv=0.38 kW=13.349280834662416 pf=0.9 status=variable model=1 CVRwatts=0.8 CVRvars=3 Class=1 daily=335 conn=wye
New Load.Carga_IDSeta_23 phases=3 bus1=X_23.1.2.3.0 kv=0.38 kW=81.75525677988342 pf=0.9 status=variable model=1 CVRwatts=0.8 CVRvars=3 Class=1 daily=335 conn=wye
New Load.Carga_IDSeta_3018 phases=3 bus1=X_3018.1.2.3.0 kv=0.38 kW=4.0622732368937875 pf=0.9 status=variable model=1 CVRwatts=0.8 CVRvars=3 Class=1 daily=335 conn=wye
New Load.Carga_IDSeta_22 phases=3 bus1=X_22.1.2.3.0 kv=0.38 kW=17.684204044271755 pf=0.9 status=variable model=1 CVRwatts=0.8 CVRvars=3 Class=1 daily=335 conn=wye
New Load.Carga_IDSeta_3015 phases=3 bus1=X_3015.1.2.3.0 kv=0.38 kW=7.672243418274949 pf=0.9 status=variable model=1 CVRwatts=0.8 CVRvars=3 Class=1 daily=335 conn=wye
New Load.Carga_IDSeta_237 phases=3 bus1=X_237.1.2.3.0 kv=0.38 kW=51.88803744315427 pf=0.9 status=variable model=1 CVRwatts=0.8 CVRvars=3 Class=1 daily=335 conn=wye
New Load.Carga_IDSeta_3024 phases=3 bus1=X_3024.1.2.3.0 kv=0.38 kW=9.56146380406359 pf=0.9 status=variable model=1 CVRwatts=0.8 CVRvars=3 Class=1 daily=332 conn=wye
New Load.Carga_IDSeta_637 phases=3 bus1=X_637.1.2.3.0 kv=0.38 kW=11.190083293829902 pf=0.9 status=variable model=1 CVRwatts=0.8 CVRvars=3 Class=1 daily=332 conn=wye
New Load.Carga_IDSeta_781 phases=3 bus1=X_781.1.2.3.0 kv=0.38 kW=14.442208718323283 pf=0.9 status=variable model=1 CVRwatts=0.8 CVRvars=3 Class=1 daily=332 conn=wye
New Load.Carga_IDSeta_3023 phases=3 bus1=X_3023.1.2.3.0 kv=0.38 kW=0.25328824026179153 pf=0.9 status=variable model=1 CVRwatts=0.8 CVRvars=3 Class=1 daily=332 conn=wye
New Load.Carga_IDSeta_2939 phases=3 bus1=X_2939.1.2.3.0 kv=0.38 kW=0.7550856973842087 pf=0.9 status=variable model=1 CVRwatts=0.8 CVRvars=3 Class=1 daily=332 conn=wye
New Load.Carga_IDSeta_19 phases=3 bus1=X_19.1.2.3.0 kv=0.38 kW=1.9822709799260902 pf=0.9 status=variable model=1 CVRwatts=0.8 CVRvars=3 Class=1 daily=335 conn=wye
New Load.Carga_IDSeta_2428 phases=3 bus1=X_2428.1.2.3.0 kv=0.38 kW=2.971673346031564 pf=0.9 status=variable model=1 CVRwatts=0.8 CVRvars=3 Class=1 daily=335 conn=wye
New Load.Carga_IDSeta_238 phases=3 bus1=X_238.1.2.3.0 kv=0.38 kW=10.405147249440802 pf=0.9 status=variable model=1 CVRwatts=0.8 CVRvars=3 Class=1 daily=335 conn=wye
New Load.Carga_IDSeta_202 phases=3 bus1=X_202.1.2.3.0 kv=0.38 kW=410.5901459659636 pf=0.9 status=variable model=1 CVRwatts=0.8 CVRvars=3 Class=1 daily=335 conn=wye
New Load.Carga_IDSeta_239 phases=3 bus1=X_239.1.2.3.0 kv=0.38 kW=1.6211048765335772 pf=0.9 status=variable model=1 CVRwatts=0.8 CVRvars=3 Class=1 daily=335 conn=wye
New Load.Carga_IDSeta_3019 phases=3 bus1=X_3019.1.2.3.0 kv=0.38 kW=17.97798967378697 pf=0.9 status=variable model=1 CVRwatts=0.8 CVRvars=3 Class=1 daily=335 conn=wye
New Load.Carga_IDSeta_3011 phases=3 bus1=X_3011.1.2.3.0 kv=0.38 kW=4.16252938241548 pf=0.9 status=variable model=1 CVRwatts=0.8 CVRvars=3 Class=1 daily=332 conn=wye
New Load.Carga_IDSeta_1569 phases=3 bus1=X_1569.1.2.3.0 kv=0.38 kW=12.210404789978819 pf=0.9 status=variable model=1 CVRwatts=0.8 CVRvars=3 Class=1 daily=332 conn=wye
New Load.Carga_IDSeta_551 phases=3 bus1=X_551.1.2.3.0 kv=0.38 kW=7.3095162920832095 pf=0.9 status=variable model=1 CVRwatts=0.8 CVRvars=3 Class=1 daily=332 conn=wye
New Load.Carga_IDSeta_2985 phases=3 bus1=X_2985.1.2.3.0 kv=0.38 kW=3.9450838176624323 pf=0.9 status=variable model=1 CVRwatts=0.8 CVRvars=3 Class=1 daily=332 conn=wye
New Load.Carga_IDSeta_433 phases=3 bus1=X_433.1.2.3.0 kv=0.38 kW=10.313132499715966 pf=0.9 status=variable model=1 CVRwatts=0.8 CVRvars=3 Class=1 daily=332 conn=wye
New Load.Carga_IDSeta_2299 phases=3 bus1=X_2299.1.2.3.0 kv=0.38 kW=35.79510033078548 pf=0.9 status=variable model=1 CVRwatts=0.8 CVRvars=3 Class=1 daily=332 conn=wye
New Load.Carga_IDSeta_2109 phases=3 bus1=X_2109.1.2.3.0 kv=0.38 kW=9.192451512142565 pf=0.9 status=variable model=1 CVRwatts=0.8 CVRvars=3 Class=1 daily=332 conn=wye
New Load.Carga_IDSeta_1032 phases=3 bus1=X_1032.1.2.3.0 kv=0.38 kW=164.442754337269 pf=0.9 status=variable model=1 CVRwatts=0.8 CVRvars=3 Class=1 daily=332 conn=wye
New Load.Carga_IDSeta_2171 phases=3 bus1=X_2171.1.2.3.0 kv=0.38 kW=22.024129344272943 pf=0.9 status=variable model=1 CVRwatts=0.8 CVRvars=3 Class=1 daily=332 conn=wye
New Load.Carga_IDSeta_2995 phases=3 bus1=X_2995.1.2.3.0 kv=0.38 kW=4.9008884978956075 pf=0.9 status=variable model=1 CVRwatts=0.8 CVRvars=3 Class=1 daily=332 conn=wye
New Load.Carga_IDSeta_2974 phases=3 bus1=X_2974.1.2.3.0 kv=0.38 kW=2.4380962348656654 pf=0.9 status=variable model=1 CVRwatts=0.8 CVRvars=3 Class=1 daily=333 conn=wye
New Load.Carga_IDSeta_2064 phases=3 bus1=X_2064.1.2.3.0 kv=0.38 kW=18.033510435487656 pf=0.9 status=variable model=1 CVRwatts=0.8 CVRvars=3 Class=1 daily=333 conn=wye
New Load.Carga_IDSeta_1984 phases=3 bus1=X_1984.1.2.3.0 kv=0.38 kW=3.710942719922295 pf=0.9 status=variable model=1 CVRwatts=0.8 CVRvars=3 Class=1 daily=333 conn=wye
New Load.Carga_IDSeta_1649 phases=3 bus1=X_1649.1.2.3.0 kv=0.38 kW=1.0004207085786814 pf=0.9 status=variable model=1 CVRwatts=0.8 CVRvars=3 Class=1 daily=333 conn=wye
New Load.Carga_IDSeta_1678 phases=3 bus1=X_1678.1.2.3.0 kv=0.38 kW=0.5425622607165848 pf=0.9 status=variable model=1 CVRwatts=0.8 CVRvars=3 Class=1 daily=333 conn=wye
New Load.Carga_IDSeta_531 phases=3 bus1=X_531.1.2.3.0 kv=0.38 kW=1.932162649978049 pf=0.9 status=variable model=1 CVRwatts=0.8 CVRvars=3 Class=1 daily=333 conn=wye
New Load.Carga_IDSeta_3006 phases=3 bus1=X_3006.1.2.3.0 kv=0.38 kW=88.06805475280456 pf=0.9 status=variable model=1 CVRwatts=0.8 CVRvars=3 Class=1 daily=335 conn=wye
New Load.Carga_IDSeta_3026 phases=3 bus1=X_3026.1.2.3.0 kv=0.38 kW=18.577587121536396 pf=0.9 status=variable model=1 CVRwatts=0.8 CVRvars=3 Class=1 daily=335 conn=wye
New Load.Carga_IDSeta_6005 phases=3 bus1=X_6005.1.2.3.0 kv=0.38 kW=92.68494556757115 pf=0.9 status=variable model=1 CVRwatts=0.8 CVRvars=3 Class=1 daily=334 conn=wye
New Load.Carga_IDSeta_2996 phases=3 bus1=X_2996.1.2.3.0 kv=0.38 kW=71.30229608556435 pf=0.9 status=variable model=1 CVRwatts=0.8 CVRvars=3 Class=1 daily=333 conn=wye
New Load.Carga_IDSeta_7 phases=3 bus1=X_7.1.2.3.0 kv=0.38 kW=198.6722628188478 pf=0.9 status=variable model=1 CVRwatts=0.8 CVRvars=3 Class=1 daily=334 conn=wye
New Load.Carga_IDSeta_6 phases=3 bus1=X_6.1.2.3.0 kv=0.38 kW=184.79519291840452 pf=0.9 status=variable model=1 CVRwatts=0.8 CVRvars=3 Class=1 daily=334 conn=wye
New Load.Carga_IDSeta_94 phases=3 bus1=X_94.1.2.3.0 kv=0.38 kW=73.58014186367826 pf=0.9 status=variable model=1 CVRwatts=0.8 CVRvars=3 Class=1 daily=333 conn=wye
New Load.Carga_IDSeta_2954 phases=3 bus1=X_2954.1.2.3.0 kv=0.38 kW=129.42513674941824 pf=0.9 status=variable model=1 CVRwatts=0.8 CVRvars=3 Class=1 daily=333 conn=wye
New Load.Carga_IDSeta_2798 phases=3 bus1=X_2798.1.2.3.0 kv=0.38 kW=138.29614417674634 pf=0.9 status=variable model=1 CVRwatts=0.8 CVRvars=3 Class=1 daily=333 conn=wye
New Load.Carga_IDSeta_15 phases=3 bus1=X_15.1.2.3.0 kv=0.38 kW=146.20768313794474 pf=0.9 status=variable model=1 CVRwatts=0.8 CVRvars=3 Class=1 daily=334 conn=wye
New Load.Carga_IDSeta_76 phases=3 bus1=X_76.1.2.3.0 kv=0.38 kW=159.33045366081134 pf=0.9 status=variable model=1 CVRwatts=0.8 CVRvars=3 Class=1 daily=334 conn=wye
New Load.Carga_IDSeta_8 phases=3 bus1=X_8.1.2.3.0 kv=0.38 kW=86.18176185857769 pf=0.9 status=variable model=1 CVRwatts=0.8 CVRvars=3 Class=1 daily=334 conn=wye
New Load.Carga_IDSeta_14 phases=3 bus1=X_14.1.2.3.0 kv=0.38 kW=327.98160125210995 pf=0.9 status=variable model=1 CVRwatts=0.8 CVRvars=3 Class=1 daily=334 conn=wye
New Load.Carga_IDSeta_2932 phases=3 bus1=X_2932.1.2.3.0 kv=0.38 kW=52.75248580626017 pf=0.9 status=variable model=1 CVRwatts=0.8 CVRvars=3 Class=1 daily=335 conn=wye
New Load.Carga_IDSeta_505 phases=3 bus1=X_505.1.2.3.0 kv=0.38 kW=54.22986821655609 pf=0.9 status=variable model=1 CVRwatts=0.8 CVRvars=3 Class=1 daily=335 conn=wye
New Load.Carga_IDSeta_5020 phases=3 bus1=X_5020.1.2.3.0 kv=0.38 kW=1.2774250695352503 pf=0.9 status=variable model=1 CVRwatts=0.8 CVRvars=3 Class=1 daily=333 conn=wye
New Load.Carga_IDSeta_5021 phases=3 bus1=X_5021.1.2.3.0 kv=0.38 kW=0.7005234252290081 pf=0.9 status=variable model=1 CVRwatts=0.8 CVRvars=3 Class=1 daily=333 conn=wye
New Load.Carga_IDSeta_5022 phases=3 bus1=X_5022.1.2.3.0 kv=0.38 kW=1.073678060236617 pf=0.9 status=variable model=1 CVRwatts=0.8 CVRvars=3 Class=1 daily=333 conn=wye
New Load.Carga_IDSeta_5010 phases=3 bus1=X_5010.1.2.3.0 kv=0.38 kW=3.2530842720601982 pf=0.9 status=variable model=1 CVRwatts=0.8 CVRvars=3 Class=1 daily=333 conn=wye
New Load.Carga_IDSeta_5014 phases=3 bus1=X_5014.1.2.3.0 kv=0.38 kW=9.722624140351625 pf=0.9 status=variable model=1 CVRwatts=0.8 CVRvars=3 Class=1 daily=333 conn=wye
New Load.Carga_IDSeta_5012 phases=3 bus1=X_5012.1.2.3.0 kv=0.38 kW=0.5128014616055485 pf=0.9 status=variable model=1 CVRwatts=0.8 CVRvars=3 Class=1 daily=333 conn=wye
New Load.Carga_IDSeta_5028 phases=3 bus1=X_5028.1.2.3.0 kv=0.38 kW=0.37773321948622984 pf=0.9 status=variable model=1 CVRwatts=0.8 CVRvars=3 Class=1 daily=333 conn=wye
New Load.Carga_IDSeta_5025 phases=3 bus1=X_5025.1.2.3.0 kv=0.38 kW=2.8684831758560367 pf=0.9 status=variable model=1 CVRwatts=0.8 CVRvars=3 Class=1 daily=333 conn=wye
! New Load.Carga_IDSeta_5018 phases=3 bus1=X_5018.1.2.3.0 kv=0.38 kW=0.0 pf=0.9 status=variable model=1 CVRwatts=0.8 CVRvars=3 Class=1 daily=333 conn=wye
New Load.Carga_IDSeta_5016 phases=3 bus1=X_5016.1.2.3.0 kv=0.38 kW=0.7279949321007338 pf=0.9 status=variable model=1 CVRwatts=0.8 CVRvars=3 Class=1 daily=333 conn=wye
New Load.Carga_IDSeta_5027 phases=3 bus1=X_5027.1.2.3.0 kv=0.38 kW=4.649552538039594 pf=0.9 status=variable model=1 CVRwatts=0.8 CVRvars=3 Class=1 daily=333 conn=wye
New Load.Carga_IDSeta_5013 phases=3 bus1=X_5013.1.2.3.0 kv=0.38 kW=2.683050504471888 pf=0.9 status=variable model=1 CVRwatts=0.8 CVRvars=3 Class=1 daily=333 conn=wye
New Load.Carga_IDSeta_5015 phases=3 bus1=X_5015.1.2.3.0 kv=0.38 kW=5.9430026532500175 pf=0.9 status=variable model=1 CVRwatts=0.8 CVRvars=3 Class=1 daily=333 conn=wye
New Load.Carga_IDSeta_5017 phases=3 bus1=X_5017.1.2.3.0 kv=0.38 kW=1.5040650012269883 pf=0.9 status=variable model=1 CVRwatts=0.8 CVRvars=3 Class=1 daily=333 conn=wye
New Load.Carga_IDSeta_5019 phases=3 bus1=X_5019.1.2.3.0 kv=0.38 kW=2.9829477878215607 pf=0.9 status=variable model=1 CVRwatts=0.8 CVRvars=3 Class=1 daily=333 conn=wye
New Load.Carga_IDSeta_5001 phases=3 bus1=X_5001.1.2.3.0 kv=0.38 kW=0.7600450234510807 pf=0.9 status=variable model=1 CVRwatts=0.8 CVRvars=3 Class=1 daily=333 conn=wye
New Load.Carga_IDSeta_5002 phases=3 bus1=X_5002.1.2.3.0 kv=0.38 kW=3.834564500845061 pf=0.9 status=variable model=1 CVRwatts=0.8 CVRvars=3 Class=1 daily=333 conn=wye
New Load.Carga_IDSeta_5005 phases=3 bus1=X_5005.1.2.3.0 kv=0.38 kW=39.89091726998519 pf=0.9 status=variable model=1 CVRwatts=0.8 CVRvars=3 Class=1 daily=333 conn=wye
New Load.Carga_IDSeta_5004 phases=3 bus1=X_5004.1.2.3.0 kv=0.38 kW=37.76187548742644 pf=0.9 status=variable model=1 CVRwatts=0.8 CVRvars=3 Class=1 daily=333 conn=wye
New Load.Carga_IDSeta_5003 phases=3 bus1=X_5003.1.2.3.0 kv=0.38 kW=18.72190061184832 pf=0.9 status=variable model=1 CVRwatts=0.8 CVRvars=3 Class=1 daily=333 conn=wye
New Load.Carga_IDSeta_111 phases=3 bus1=X_111.1.2.3.0 kv=0.38 kW=2.527378632198775 pf=0.9 status=variable model=1 CVRwatts=0.8 CVRvars=3 Class=1 daily=333 conn=wye
New Load.Carga_IDSeta_2797 phases=3 bus1=X_2797.1.2.3.0 kv=0.38 kW=86.25755549730793 pf=0.9 status=variable model=1 CVRwatts=0.8 CVRvars=3 Class=1 daily=333 conn=wye
New Load.Carga_IDSeta_2976 phases=3 bus1=X_2976.1.2.3.0 kv=0.38 kW=4.072650893733352 pf=0.9 status=variable model=1 CVRwatts=0.8 CVRvars=3 Class=1 daily=333 conn=wye
New Load.Carga_IDSeta_2796 phases=3 bus1=X_2796.1.2.3.0 kv=0.38 kW=0.8241452061517743 pf=0.9 status=variable model=1 CVRwatts=0.8 CVRvars=3 Class=1 daily=333 conn=wye
New Load.Carga_IDSeta_1962 phases=3 bus1=X_1962.1.2.3.0 kv=0.38 kW=54.35924422242744 pf=0.9 status=variable model=1 CVRwatts=0.8 CVRvars=3 Class=1 daily=333 conn=wye
New Load.Carga_IDSeta_2929 phases=3 bus1=X_2929.1.2.3.0 kv=0.38 kW=72.40344565267267 pf=0.9 status=variable model=1 CVRwatts=0.8 CVRvars=3 Class=1 daily=333 conn=wye
New Load.Carga_IDSeta_2979 phases=3 bus1=X_2979.1.2.3.0 kv=0.38 kW=83.54538519555203 pf=0.9 status=variable model=1 CVRwatts=0.8 CVRvars=3 Class=1 daily=333 conn=wye
New Load.Carga_IDSeta_3 phases=3 bus1=X_3.1.2.3.0 kv=0.38 kW=241.52666070003156 pf=0.9 status=variable model=1 CVRwatts=0.8 CVRvars=3 Class=1 daily=334 conn=wye
New Load.Carga_IDSeta_2999 phases=3 bus1=X_2999.1.2.3.0 kv=0.38 kW=4.349655254689919 pf=0.9 status=variable model=1 CVRwatts=0.8 CVRvars=3 Class=1 daily=333 conn=wye
New Load.Carga_IDSeta_53 phases=3 bus1=X_53.1.2.3.0 kv=0.38 kW=127.75358862477778 pf=0.9 status=variable model=1 CVRwatts=0.8 CVRvars=3 Class=1 daily=334 conn=wye
New Load.Carga_IDSeta_378 phases=3 bus1=X_378.1.2.3.0 kv=0.38 kW=116.14426960154006 pf=0.9 status=variable model=1 CVRwatts=0.8 CVRvars=3 Class=1 daily=334 conn=wye
New Load.Carga_IDSeta_78 phases=3 bus1=X_78.1.2.3.0 kv=0.38 kW=196.69144942426655 pf=0.9 status=variable model=1 CVRwatts=0.8 CVRvars=3 Class=1 daily=334 conn=wye
New Load.Carga_IDSeta_54 phases=3 bus1=X_54.1.2.3.0 kv=0.38 kW=183.09297717535767 pf=0.9 status=variable model=1 CVRwatts=0.8 CVRvars=3 Class=1 daily=334 conn=wye
New Load.Carga_IDSeta_85 phases=3 bus1=X_85.1.2.3.0 kv=0.38 kW=153.23351179750242 pf=0.9 status=variable model=1 CVRwatts=0.8 CVRvars=3 Class=1 daily=335 conn=wye
New Load.Carga_IDSeta_46 phases=3 bus1=X_46.1.2.3.0 kv=0.38 kW=46.51323991900187 pf=0.9 status=variable model=1 CVRwatts=0.8 CVRvars=3 Class=1 daily=335 conn=wye
New Load.Carga_IDSeta_13 phases=3 bus1=X_13.1.2.3.0 kv=0.38 kW=123.03167167014597 pf=0.9 status=variable model=1 CVRwatts=0.8 CVRvars=3 Class=1 daily=334 conn=wye
New Load.Carga_IDSeta_12 phases=3 bus1=X_12.1.2.3.0 kv=0.38 kW=217.15463621644122 pf=0.9 status=variable model=1 CVRwatts=0.8 CVRvars=3 Class=1 daily=334 conn=wye
New Load.Carga_IDSeta_74 phases=3 bus1=X_74.1.2.3.0 kv=0.38 kW=90.21828285209578 pf=0.9 status=variable model=1 CVRwatts=0.8 CVRvars=3 Class=1 daily=334 conn=wye
New Load.Carga_IDSeta_69 phases=3 bus1=X_69.1.2.3.0 kv=0.38 kW=191.28420621252985 pf=0.9 status=variable model=1 CVRwatts=0.8 CVRvars=3 Class=1 daily=334 conn=wye
New Load.Carga_IDSeta_79 phases=3 bus1=X_79.1.2.3.0 kv=0.38 kW=93.82261068873213 pf=0.9 status=variable model=1 CVRwatts=0.8 CVRvars=3 Class=1 daily=334 conn=wye
New Load.Carga_IDSeta_75 phases=3 bus1=X_75.1.2.3.0 kv=0.38 kW=73.99065299936649 pf=0.9 status=variable model=1 CVRwatts=0.8 CVRvars=3 Class=1 daily=334 conn=wye
New Load.Carga_IDSeta_9 phases=3 bus1=X_9.1.2.3.0 kv=0.38 kW=168.31069354790588 pf=0.9 status=variable model=1 CVRwatts=0.8 CVRvars=3 Class=1 daily=334 conn=wye
New Load.Carga_IDSeta_57 phases=3 bus1=X_57.1.2.3.0 kv=0.38 kW=243.6380058172775 pf=0.9 status=variable model=1 CVRwatts=0.8 CVRvars=3 Class=1 daily=334 conn=wye
New Load.Carga_IDSeta_17 phases=3 bus1=X_17.1.2.3.0 kv=0.38 kW=224.2118693511162 pf=0.9 status=variable model=1 CVRwatts=0.8 CVRvars=3 Class=1 daily=334 conn=wye
New Load.Carga_IDSeta_840 phases=3 bus1=X_840.1.2.3.0 kv=0.38 kW=45.67896363963287 pf=0.9 status=variable model=1 CVRwatts=0.8 CVRvars=3 Class=1 daily=334 conn=wye
New Load.Carga_IDSeta_41 phases=3 bus1=X_41.1.2.3.0 kv=0.38 kW=78.83088503376952 pf=0.9 status=variable model=1 CVRwatts=0.8 CVRvars=3 Class=1 daily=335 conn=wye
New Load.Carga_IDSeta_40 phases=3 bus1=X_40.1.2.3.0 kv=0.38 kW=103.2005509516539 pf=0.9 status=variable model=1 CVRwatts=0.8 CVRvars=3 Class=1 daily=335 conn=wye
New Load.Carga_IDSeta_18 phases=3 bus1=X_18.1.2.3.0 kv=0.38 kW=122.27175072626551 pf=0.9 status=variable model=1 CVRwatts=0.8 CVRvars=3 Class=1 daily=334 conn=wye
New Load.Carga_IDSeta_80 phases=3 bus1=X_80.1.2.3.0 kv=0.38 kW=129.77211129464024 pf=0.9 status=variable model=1 CVRwatts=0.8 CVRvars=3 Class=1 daily=334 conn=wye
New Load.Carga_IDSeta_51 phases=3 bus1=X_51.1.2.3.0 kv=0.38 kW=191.19906874395912 pf=0.9 status=variable model=1 CVRwatts=0.8 CVRvars=3 Class=1 daily=334 conn=wye
New Load.Carga_IDSeta_50 phases=3 bus1=X_50.1.2.3.0 kv=0.38 kW=166.47175044990198 pf=0.9 status=variable model=1 CVRwatts=0.8 CVRvars=3 Class=1 daily=334 conn=wye
New Load.Carga_IDSeta_52 phases=3 bus1=X_52.1.2.3.0 kv=0.38 kW=122.53532027114368 pf=0.9 status=variable model=1 CVRwatts=0.8 CVRvars=3 Class=1 daily=334 conn=wye
New Load.Carga_IDSeta_200 phases=3 bus1=X_200.1.2.3.0 kv=0.38 kW=48.468191810849376 pf=0.9 status=variable model=1 CVRwatts=0.8 CVRvars=3 Class=1 daily=334 conn=wye
New Load.Carga_IDSeta_63 phases=3 bus1=X_63.1.2.3.0 kv=0.38 kW=85.99518274710562 pf=0.9 status=variable model=1 CVRwatts=0.8 CVRvars=3 Class=1 daily=334 conn=wye
New Load.Carga_IDSeta_55 phases=3 bus1=X_55.1.2.3.0 kv=0.38 kW=46.83160882288502 pf=0.9 status=variable model=1 CVRwatts=0.8 CVRvars=3 Class=1 daily=334 conn=wye
New Load.Carga_IDSeta_58 phases=3 bus1=X_58.1.2.3.0 kv=0.38 kW=153.36069797328872 pf=0.9 status=variable model=1 CVRwatts=0.8 CVRvars=3 Class=1 daily=334 conn=wye
New Load.Carga_IDSeta_68 phases=3 bus1=X_68.1.2.3.0 kv=0.38 kW=74.03239448926381 pf=0.9 status=variable model=1 CVRwatts=0.8 CVRvars=3 Class=1 daily=334 conn=wye
New Load.Carga_IDSeta_61 phases=3 bus1=X_61.1.2.3.0 kv=0.38 kW=207.78474422847776 pf=0.9 status=variable model=1 CVRwatts=0.8 CVRvars=3 Class=1 daily=334 conn=wye
New Load.Carga_IDSeta_73 phases=3 bus1=X_73.1.2.3.0 kv=0.38 kW=123.30355398334665 pf=0.9 status=variable model=1 CVRwatts=0.8 CVRvars=3 Class=1 daily=334 conn=wye
New Load.Carga_IDSeta_83 phases=3 bus1=X_83.1.2.3.0 kv=0.38 kW=146.53036472888817 pf=0.9 status=variable model=1 CVRwatts=0.8 CVRvars=3 Class=1 daily=334 conn=wye
New Load.Carga_IDSeta_60 phases=3 bus1=X_60.1.2.3.0 kv=0.38 kW=162.05408600795283 pf=0.9 status=variable model=1 CVRwatts=0.8 CVRvars=3 Class=1 daily=334 conn=wye
New Load.Carga_IDSeta_62 phases=3 bus1=X_62.1.2.3.0 kv=0.38 kW=120.35692819859955 pf=0.9 status=variable model=1 CVRwatts=0.8 CVRvars=3 Class=1 daily=334 conn=wye
New Load.Carga_IDSeta_77 phases=3 bus1=X_77.1.2.3.0 kv=0.38 kW=122.8899949788599 pf=0.9 status=variable model=1 CVRwatts=0.8 CVRvars=3 Class=1 daily=334 conn=wye
New Load.Carga_IDSeta_82 phases=3 bus1=X_82.1.2.3.0 kv=0.38 kW=34.66107572312859 pf=0.9 status=variable model=1 CVRwatts=0.8 CVRvars=3 Class=1 daily=334 conn=wye
New Load.Carga_IDSeta_56 phases=3 bus1=X_56.1.2.3.0 kv=0.38 kW=203.9530559983793 pf=0.9 status=variable model=1 CVRwatts=0.8 CVRvars=3 Class=1 daily=334 conn=wye
New Load.Carga_IDSeta_65 phases=3 bus1=X_65.1.2.3.0 kv=0.38 kW=94.0105573560746 pf=0.9 status=variable model=1 CVRwatts=0.8 CVRvars=3 Class=1 daily=334 conn=wye
New Load.Carga_IDSeta_241 phases=3 bus1=X_241.1.2.3.0 kv=0.38 kW=2.2868780657227252 pf=0.9 status=variable model=1 CVRwatts=0.8 CVRvars=3 Class=1 daily=335 conn=wye
New Load.Carga_IDSeta_70 phases=3 bus1=X_70.1.2.3.0 kv=0.38 kW=108.83322946191574 pf=0.9 status=variable model=1 CVRwatts=0.8 CVRvars=3 Class=1 daily=334 conn=wye
New Load.Carga_IDSeta_59 phases=3 bus1=X_59.1.2.3.0 kv=0.38 kW=212.01506450880046 pf=0.9 status=variable model=1 CVRwatts=0.8 CVRvars=3 Class=1 daily=334 conn=wye
New Load.Carga_IDSeta_3009 phases=3 bus1=X_3009.1.2.3.0 kv=0.38 kW=70.40365366194472 pf=0.9 status=variable model=1 CVRwatts=0.8 CVRvars=3 Class=1 daily=334 conn=wye
New Load.Carga_IDSeta_81 phases=3 bus1=X_81.1.2.3.0 kv=0.38 kW=162.34129059258257 pf=0.9 status=variable model=1 CVRwatts=0.8 CVRvars=3 Class=1 daily=334 conn=wye
New Load.Carga_IDSeta_3028 phases=3 bus1=X_3028.1.2.3.0 kv=0.38 kW=104.51793643997644 pf=0.9 status=variable model=1 CVRwatts=0.8 CVRvars=3 Class=1 daily=335 conn=wye
New Load.Carga_IDSeta_2645 phases=3 bus1=X_2645.1.2.3.0 kv=0.38 kW=4.6266596156464885 pf=0.9 status=variable model=1 CVRwatts=0.8 CVRvars=3 Class=1 daily=333 conn=wye
New Load.Carga_IDSeta_2646 phases=3 bus1=X_2646.1.2.3.0 kv=0.38 kW=1.3277894988000811 pf=0.9 status=variable model=1 CVRwatts=0.8 CVRvars=3 Class=1 daily=333 conn=wye
New Load.Carga_IDSeta_2794 phases=3 bus1=X_2794.1.2.3.0 kv=0.38 kW=45.289320192425635 pf=0.9 status=variable model=1 CVRwatts=0.8 CVRvars=3 Class=1 daily=333 conn=wye
New Load.Carga_IDSeta_2795 phases=3 bus1=X_2795.1.2.3.0 kv=0.38 kW=4.7113634285009764 pf=0.9 status=variable model=1 CVRwatts=0.8 CVRvars=3 Class=1 daily=333 conn=wye
New Load.Carga_IDSeta_2924 phases=3 bus1=X_2924.1.2.3.0 kv=0.38 kW=1.0805459369545485 pf=0.9 status=variable model=1 CVRwatts=0.8 CVRvars=3 Class=1 daily=333 conn=wye
New Load.Carga_IDSeta_2479 phases=3 bus1=X_2479.1.2.3.0 kv=0.38 kW=6.506640360687342 pf=0.9 status=variable model=1 CVRwatts=0.8 CVRvars=3 Class=1 daily=332 conn=wye
New Load.Carga_IDSeta_2300 phases=3 bus1=X_2300.1.2.3.0 kv=0.38 kW=1.2449355960037112 pf=0.9 status=variable model=1 CVRwatts=0.8 CVRvars=3 Class=1 daily=332 conn=wye
New Load.Carga_IDSeta_2972 phases=3 bus1=X_2972.1.2.3.0 kv=0.38 kW=6.529061466513501 pf=0.9 status=variable model=1 CVRwatts=0.8 CVRvars=3 Class=1 daily=333 conn=wye
New Load.Carga_IDSeta_5029 phases=3 bus1=X_5029.1.2.3.0 kv=0.38 kW=9.422726857001953 pf=0.9 status=variable model=1 CVRwatts=0.8 CVRvars=3 Class=1 daily=333 conn=wye
New Load.Carga_IDSeta_87 phases=3 bus1=X_87.1.2.3.0 kv=0.38 kW=76.68239216141083 pf=0.9 status=variable model=1 CVRwatts=0.8 CVRvars=3 Class=1 daily=334 conn=wye
New Load.Carga_IDSeta_86 phases=3 bus1=X_86.1.2.3.0 kv=0.38 kW=126.05162404428555 pf=0.9 status=variable model=1 CVRwatts=0.8 CVRvars=3 Class=1 daily=334 conn=wye
New Load.Carga_IDSeta_3017 phases=3 bus1=X_3017.1.2.3.0 kv=0.38 kW=9.587133924323735 pf=0.9 status=variable model=1 CVRwatts=0.8 CVRvars=3 Class=1 daily=335 conn=wye
New Load.Carga_IDSeta_3027 phases=3 bus1=X_3027.1.2.3.0 kv=0.38 kW=116.20267085285852 pf=0.9 status=variable model=1 CVRwatts=0.8 CVRvars=3 Class=1 daily=332 conn=wye
New Load.Carga_IDSeta_84 phases=3 bus1=X_84.1.2.3.0 kv=0.38 kW=56.49294608655548 pf=0.9 status=variable model=1 CVRwatts=0.8 CVRvars=3 Class=1 daily=334 conn=wye
New Load.Carga_IDSeta_88 phases=3 bus1=X_88.1.2.3.0 kv=0.38 kW=22.72214657821668 pf=0.9 status=variable model=1 CVRwatts=0.8 CVRvars=3 Class=1 daily=334 conn=wye
New Load.Carga_IDSeta_3029 phases=3 bus1=X_3029.1.2.3.0 kv=0.38 kW=18.57760652200458 pf=0.9 status=variable model=1 CVRwatts=0.8 CVRvars=3 Class=1 daily=333 conn=wye
New Load.Carga_IDSeta_10 phases=3 bus1=X_10.1.2.3.0 kv=0.38 kW=159.93389316287266 pf=0.9 status=variable model=1 CVRwatts=0.8 CVRvars=3 Class=1 daily=334 conn=wye
! New Load.Carga_IDSeta_2302 phases=3 bus1=X_2302.1.2.3.0 kv=0.38 kW=0.0 pf=0.9 status=variable model=1 CVRwatts=0.8 CVRvars=3 Class=1 daily=333 conn=wye
New Load.Carga_IDSeta_137 phases=3 bus1=X_137.1.2.3.0 kv=0.38 kW=20.382606491323486 pf=0.9 status=variable model=1 CVRwatts=0.8 CVRvars=3 Class=1 daily=332 conn=wye
New Load.Carga_IDSeta_95 phases=3 bus1=X_95.1.2.3.0 kv=0.38 kW=104.25665787043877 pf=0.9 status=variable model=1 CVRwatts=0.8 CVRvars=3 Class=1 daily=333 conn=wye
New Load.Carga_IDSeta_91 phases=3 bus1=X_91.1.2.3.0 kv=0.38 kW=61.966713191401986 pf=0.9 status=variable model=1 CVRwatts=0.8 CVRvars=3 Class=1 daily=334 conn=wye
New Load.Carga_IDSeta_3031 phases=3 bus1=X_3031.1.2.3.0 kv=0.38 kW=2.7264328503651334 pf=0.9 status=variable model=1 CVRwatts=0.8 CVRvars=3 Class=1 daily=332 conn=wye
New Load.Carga_IDSeta_2969 phases=3 bus1=X_2969.1.2.3.0 kv=0.38 kW=15.159693208714025 pf=0.9 status=variable model=1 CVRwatts=0.8 CVRvars=3 Class=1 daily=333 conn=wye
New Load.Carga_IDSeta_2987 phases=3 bus1=X_2987.1.2.3.0 kv=0.38 kW=2.4747249106946336 pf=0.9 status=variable model=1 CVRwatts=0.8 CVRvars=3 Class=1 daily=333 conn=wye
New Load.Carga_IDSeta_1 phases=3 bus1=X_1.1.2.3.0 kv=0.38 kW=23.891053809444212 pf=0.9 status=variable model=1 CVRwatts=0.8 CVRvars=3 Class=1 daily=333 conn=wye
New Load.Carga_IDSeta_2965 phases=3 bus1=X_2965.1.2.3.0 kv=0.38 kW=4.0451793868616255 pf=0.9 status=variable model=1 CVRwatts=0.8 CVRvars=3 Class=1 daily=333 conn=wye
New Load.Carga_IDSeta_89 phases=3 bus1=X_89.1.2.3.0 kv=0.38 kW=118.82865437888007 pf=0.9 status=variable model=1 CVRwatts=0.8 CVRvars=3 Class=1 daily=334 conn=wye
New Load.Carga_IDSeta_105 phases=3 bus1=X_105.1.2.3.0 kv=0.38 kW=29.60815959133581 pf=0.9 status=variable model=1 CVRwatts=0.8 CVRvars=3 Class=1 daily=335 conn=wye
New Load.Carga_IDSeta_102 phases=3 bus1=X_102.1.2.3.0 kv=0.38 kW=73.29349239198048 pf=0.9 status=variable model=1 CVRwatts=0.8 CVRvars=3 Class=1 daily=332 conn=wye
New Load.Carga_IDSeta_90 phases=3 bus1=X_90.1.2.3.0 kv=0.38 kW=87.74822669676031 pf=0.9 status=variable model=1 CVRwatts=0.8 CVRvars=3 Class=1 daily=334 conn=wye
New Load.Carga_IDSeta_2801 phases=3 bus1=X_2801.1.2.3.0 kv=0.38 kW=23.788035658675238 pf=0.9 status=variable model=1 CVRwatts=0.8 CVRvars=3 Class=1 daily=333 conn=wye
New Load.Carga_IDSeta_2803 phases=3 bus1=X_2803.1.2.3.0 kv=0.38 kW=4.970053451543062 pf=0.9 status=variable model=1 CVRwatts=0.8 CVRvars=3 Class=1 daily=333 conn=wye
New Load.Carga_IDSeta_97 phases=3 bus1=X_97.1.2.3.0 kv=0.38 kW=82.91611837399417 pf=0.9 status=variable model=1 CVRwatts=0.8 CVRvars=3 Class=1 daily=334 conn=wye
New Load.Carga_IDSeta_96 phases=3 bus1=X_96.1.2.3.0 kv=0.38 kW=157.91155537218074 pf=0.9 status=variable model=1 CVRwatts=0.8 CVRvars=3 Class=1 daily=334 conn=wye
New Load.Carga_IDSeta_131 phases=3 bus1=X_131.1.2.3.0 kv=0.38 kW=22.604266810124443 pf=0.9 status=variable model=1 CVRwatts=0.8 CVRvars=3 Class=1 daily=334 conn=wye
New Load.Carga_IDSeta_132 phases=3 bus1=X_132.1.2.3.0 kv=0.38 kW=44.105148568023765 pf=0.9 status=variable model=1 CVRwatts=0.8 CVRvars=3 Class=1 daily=334 conn=wye
New Load.Carga_IDSeta_130 phases=3 bus1=X_130.1.2.3.0 kv=0.38 kW=34.50585314310512 pf=0.9 status=variable model=1 CVRwatts=0.8 CVRvars=3 Class=1 daily=334 conn=wye
New Load.Carga_IDSeta_128 phases=3 bus1=X_128.1.2.3.0 kv=0.38 kW=37.315652981576434 pf=0.9 status=variable model=1 CVRwatts=0.8 CVRvars=3 Class=1 daily=334 conn=wye
New Load.Carga_IDSeta_129 phases=3 bus1=X_129.1.2.3.0 kv=0.38 kW=38.34650093608925 pf=0.9 status=variable model=1 CVRwatts=0.8 CVRvars=3 Class=1 daily=334 conn=wye
New Load.Carga_IDSeta_114 phases=3 bus1=X_114.1.2.3.0 kv=0.38 kW=50.93634692877814 pf=0.9 status=variable model=1 CVRwatts=0.8 CVRvars=3 Class=1 daily=334 conn=wye
New Load.Carga_IDSeta_113 phases=3 bus1=X_113.1.2.3.0 kv=0.38 kW=23.655877446505947 pf=0.9 status=variable model=1 CVRwatts=0.8 CVRvars=3 Class=1 daily=334 conn=wye
New Load.Carga_IDSeta_107 phases=3 bus1=X_107.1.2.3.0 kv=0.38 kW=11.068727977066192 pf=0.9 status=variable model=1 CVRwatts=0.8 CVRvars=3 Class=1 daily=333 conn=wye
New Load.Carga_IDSeta_1963 phases=3 bus1=X_1963.1.2.3.0 kv=0.38 kW=18.808825038174938 pf=0.9 status=variable model=1 CVRwatts=0.8 CVRvars=3 Class=1 daily=333 conn=wye
New Load.Carga_IDSeta_101 phases=3 bus1=X_101.1.2.3.0 kv=0.38 kW=6.968605576461115 pf=0.9 status=variable model=1 CVRwatts=0.8 CVRvars=3 Class=1 daily=333 conn=wye
! New Load.Carga_IDSeta_116 phases=3 bus1=X_116.1.2.3.0 kv=0.38 kW=0.0 pf=0.9 status=variable model=1 CVRwatts=0.8 CVRvars=3 Class=1 daily=334 conn=wye
New Load.Carga_IDSeta_92 phases=3 bus1=X_92.1.2.3.0 kv=0.38 kW=5.510462750242123 pf=0.9 status=variable model=1 CVRwatts=0.8 CVRvars=3 Class=1 daily=334 conn=wye
New Load.Carga_IDSeta_93 phases=3 bus1=X_93.1.2.3.0 kv=0.38 kW=3.3291104961692146 pf=0.9 status=variable model=1 CVRwatts=0.8 CVRvars=3 Class=1 daily=334 conn=wye
! New Load.Carga_IDSeta_108 phases=3 bus1=X_108.1.2.3.0 kv=0.38 kW=0.0 pf=0.9 status=variable model=1 CVRwatts=0.8 CVRvars=3 Class=1 daily=333 conn=wye
New Load.Carga_IDSeta_124 phases=3 bus1=X_124.1.2.3.0 kv=0.38 kW=1.2614000238600769 pf=0.9 status=variable model=1 CVRwatts=0.8 CVRvars=3 Class=1 daily=333 conn=wye
! New Load.Carga_IDSeta_125 phases=3 bus1=X_125.1.2.3.0 kv=0.38 kW=0.0 pf=0.9 status=variable model=1 CVRwatts=0.8 CVRvars=3 Class=1 daily=333 conn=wye
! New Load.Carga_IDSeta_126 phases=3 bus1=X_126.1.2.3.0 kv=0.38 kW=0.0 pf=0.9 status=variable model=1 CVRwatts=0.8 CVRvars=3 Class=1 daily=333 conn=wye
! New Load.Carga_IDSeta_127 phases=3 bus1=X_127.1.2.3.0 kv=0.38 kW=0.0 pf=0.9 status=variable model=1 CVRwatts=0.8 CVRvars=3 Class=1 daily=333 conn=wye
...